LTspice 24.1.1 for Windows
Circuit: C:\Users\Korisnik\Desktop\PEP009-V1-LC_rezonantno_kolo\SimulacijaLC.net
Start Time: Tue Mar  4 13:34:16 2025
solver = Normal
Maximum thread count: 4
tnom = 27
temp = 27
method = trap
C:\Users\Korisnik\Desktop\PEP009-V1-LC_rezonantno_kolo\SimulacijaLC.net(5): Limiting rise time to 0.1.

V1 N001 N003 PULSE(0 10 0 0 0 1)
^^^^^^^^^^^^^^^^^^^^^^^^^^^^^^^^
C:\Users\Korisnik\Desktop\PEP009-V1-LC_rezonantno_kolo\SimulacijaLC.net(5): Limiting fall time to 0.1.

V1 N001 N003 PULSE(0 10 0 0 0 1)
^^^^^^^^^^^^^^^^^^^^^^^^^^^^^^^^
WARNING: Node n003 is floating.

.OP point found by inspection.
Total elapsed time: 0.206 seconds.

Files loaded:
C:\Users\Korisnik\Desktop\PEP009-V1-LC_rezonantno_kolo\SimulacijaLC.net

